*SPEF "IEEE 1481-1998"
*DESIGN "counter"
*DATE "Sun Oct 17 10:23:14 2021"
*VENDOR "Cadence Design Systems, Inc."
*PROGRAM "Innovus"
*VERSION "16.26-s040_1"
*DESIGN_FLOW "PIN_CAP NONE" "NAME_SCOPE LOCAL"
*DIVIDER /
*DELIMITER :
*BUS_DELIMITER []
*T_UNIT 1 NS
*C_UNIT 1 PF
*R_UNIT 1 OHM
*L_UNIT 1 HENRY

// MMMC spef file for corner 'Default_rc_corner'

*NAME_MAP

*1 clk
*2 out[2]
*3 out[1]
*4 out[0]
*5 n_0
*6 n_1
*7 n_2
*8 n_3
*9 n_4
*10 out_reg\[1\]
*11 g69
*12 g71
*13 g72
*14 out_reg\[2\]
*15 out_reg\[0\]


*PORTS

*2 O *C 0 0
*3 O *C 0 0
*4 O *C 0 0
*1 I *C 0 0


*D_NET *1 0.00102351

*CONN
*I *14:CK I *C 7 9 *L 0.000671 *D DFZRM2RA
*I *10:CK I *C 9 7 *L 0.000649 *D DFQZRM2RA
*I *15:CK I *C 5 6 *L 0.000671 *D DFZRM2RA
*P *1 I *C 0 0 *L 0

*CAP
1 *1:1 2.90068e-05
2 *1:2 6.17936e-05
3 *14:CK 1.25289e-05
4 *1:4 6.14941e-05
5 *1:5 9.79412e-05
6 *1:6 0.000179704
7 *1:7 6.14941e-05
8 *1:8 9.79412e-05
9 *1:9 6.17936e-05
10 *1:10 0.000124936
11 *1:11 2.90068e-05
12 *1:12 0.000125235
13 *10:CK 1.25289e-05
14 *1:15 2.90068e-05
15 *1:16 1.32843e-05
16 *15:CK 1.25289e-05
17 *1 1.32843e-05

*RES
1 *1:16 *1 0.0868923
2 *1:15 *15:CK 0.6
3 *1:15 *1:16 0.311448
4 *1:12 *1:15 0.6
5 *1:11 *10:CK 0.6
6 *1:11 *1:13 0.311448
7 *1:10 *1:12 1.78167
8 *1:9 *1:11 0.6
9 *1:8 *1:10 0.6
10 *1:7 *1:9 0.742362
11 *1:6 *1:8 1.33498
12 *1:6 *1:7 0.6
13 *1:5 *1:6 1.33498
14 *1:4 *1:5 0.6
15 *1:2 *1:4 0.742362
16 *1:1 *14:CK 0.6
17 *1:1 *1:2 0.6
18 *1:0 *1:1 0.311448
*END

*D_NET *2 0.000276855

*CONN
*I *14:Q O *C 10 9 *L 0 *D DFZRM2RA
*I *11:A I *C 11 7 *L 0.000766 *D MXB2M1RA
*P *2 O *C 0 0 *L 0

*CAP
1 *2:1 8.93879e-06
2 *2:2 2.68164e-05
3 *2:3 2.68164e-05
4 *2:4 1.78776e-05
5 *2:5 8.93879e-05
6 *2:6 8.04492e-05
7 *11:A 1.32843e-05
8 *2 1.32843e-05

*RES
1 *11:A *2 0.0868923
2 *2:6 *11:A 0.6
3 *2:5 *2:6 1.33909
4 *2:4 *2:5 0.148787
5 *2:3 *2:4 0.148787
6 *2:2 *2:3 0.297575
7 *2:1 *2:2 0.148787
8 *14:Q *2:1 0.6
*END

*D_NET *3 0.000711969

*CONN
*I *10:Q O *C 5 7 *L 0 *D DFQZRM2RA
*I *12:S I *C 9 7 *L 0.00151 *D MXB2M1RA
*I *13:B I *C 10 6 *L 0.00102 *D CKND2M2R
*P *3 O *C 0 0 *L 0

*CAP
1 *3:0 1.32843e-05
2 *3:2 0.000197379
3 *3:4 0.000234974
4 *3:5 4.69949e-05
5 *3:6 1.78776e-05
6 *3:7 9.39898e-06
7 *3:8 1.78776e-05
8 *3:9 8.04492e-05
9 *3:11 8.04492e-05
10 *3 1.32843e-05

*RES
1 *3:0 *3 0.0868923
2 *3:11 *13:B 0.6
3 *3:9 *3:11 1.33909
4 *3:8 *12:S 0.6
5 *3:7 *3:9 0.6
6 *3:6 *3:8 0.297575
7 *3:5 *3:7 0.127472
8 *3:4 *3:6 0.6
9 *3:4 *3:5 0.509889
10 *3:2 *3:4 2.67692
11 *3:1 *10:Q 0.6
12 *3:1 *3:2 0.6
13 *3:0 *3:1 0.311448
*END

*D_NET *4 0.000319973

*CONN
*I *15:Q O *C 9 6 *L 0 *D DFZRM2RA
*I *13:A I *C 10 6 *L 0.00101 *D CKND2M2R
*I *12:B I *C 10 7 *L 0.001 *D MXB2M1RA
*P *4 O *C 0 0 *L 0

*CAP
1 *4:0 1.32843e-05
2 *4:2 7.51918e-05
3 *4:4 7.51918e-05
4 *4:5 8.93879e-06
5 *4:6 7.15104e-05
6 *4:8 6.25716e-05
7 *4 1.32843e-05

*RES
1 *4:0 *4 0.0868923
2 *4:8 *12:B 0.6
3 *4:6 *13:A 0.6
4 *4:6 *4:8 1.04151
5 *4:5 *4:7 0.163139
6 *4:5 *4:6 0.148787
7 *4:4 *4:5 0.6
8 *4:2 *4:4 1.01978
9 *4:1 *15:Q 0.6
10 *4:1 *4:2 0.6
11 *4:0 *4:1 0.311448
*END

*D_NET *5 0.000125143

*CONN
*I *13:Z O *C 10 5 *L 0 *D CKND2M2R
*I *11:S I *C 11 7 *L 0.00151 *D MXB2M1RA

*CAP
1 *5:1 8.93879e-06
2 *5:2 1.78776e-05
3 *5:3 5.36328e-05
4 *5:4 4.4694e-05

*RES
1 *5:4 *11:S 0.6
2 *5:3 *5:4 0.743937
3 *5:2 *5:3 0.148787
4 *5:1 *5:2 0.148787
5 *13:Z *5:1 0.6
*END

*D_NET *6 0.000642282

*CONN
*I *15:QB O *C 10 6 *L 0 *D DFZRM2RA
*I *12:A I *C 9 7 *L 0.000766 *D MXB2M1RA
*I *15:RB I *C 6 6 *L 0.000946 *D DFZRM2RA

*CAP
1 *6:1 1.78776e-05
2 *6:2 3.57552e-05
3 *6:3 0.000169182
4 *6:5 0.000107266
5 *6:6 0.000169182
6 *6:7 8.93879e-05
7 *6:8 2.68164e-05
8 *6:10 2.68164e-05

*RES
1 *6:10 *15:RB 0.6
2 *6:8 *6:10 0.446362
3 *6:7 *12:A 0.6
4 *6:6 *6:8 0.6
5 *6:5 *6:7 1.48787
6 *6:3 *6:6 2.2945
7 *6:2 *6:5 0.297575
8 *6:1 *15:QB 0.6
9 *6:1 *6:3 0.6
10 *6:1 *6:2 0.297575
11 *6:0 *6:1 0.311448
*END

*D_NET *7 0.000224655

*CONN
*I *12:Z O *C 10 7 *L 0 *D MXB2M1RA
*I *10:D I *C 7 7 *L 0.000789 *D DFQZRM2RA

*CAP
1 *7:3 0.000103389
2 *7:4 0.000103389
3 *7:5 8.93879e-06
4 *7:6 8.93879e-06

*RES
1 *7:6 *10:D 0.6
2 *7:5 *7:7 0.163139
3 *7:5 *7:6 0.148787
4 *7:4 *7:5 0.6
5 *7:3 *7:4 1.40219
6 *7:1 *7:3 0.6
7 *7:1 *12:Z 0.6
8 *7:0 *7:1 0.311448
*END

*D_NET *8 0.000500182

*CONN
*I *11:Z O *C 11 7 *L 0 *D MXB2M1RA
*I *14:D I *C 8 9 *L 0.000891 *D DFZRM2RA

*CAP
1 *8:1 2.68164e-05
2 *8:2 2.68164e-05
3 *8:3 4.69949e-05
4 *8:4 5.63939e-05
5 *8:5 9.39898e-05
6 *8:6 9.39898e-05
7 *8:7 3.75959e-05
8 *8:8 2.81969e-05
9 *8:9 4.4694e-05
10 *8:10 4.4694e-05

*RES
1 *8:10 *14:D 0.6
2 *8:9 *8:10 0.743937
3 *8:8 *8:9 0.6
4 *8:7 *8:8 0.382417
5 *8:6 *8:7 0.127472
6 *8:5 *8:6 1.14725
7 *8:4 *8:5 0.127472
8 *8:3 *8:4 0.637361
9 *8:2 *8:3 0.6
10 *8:1 *8:2 0.446362
11 *11:Z *8:1 0.6
*END

*D_NET *9 0.00113694

*CONN
*I *15:D I *C 6 6 *L 0.000891 *D DFZRM2RA
*I *10:RB I *C 8 7 *L 0.000879 *D DFQZRM2RA
*I *11:B I *C 12 7 *L 0.001 *D MXB2M1RA
*I *14:RB I *C 7 9 *L 0.000946 *D DFZRM2RA
*I *14:QB O *C 11 10 *L 0 *D DFZRM2RA

*CAP
1 *9:0 6.57929e-05
2 *9:1 0.000253772
3 *9:2 1.78776e-05
4 *9:3 4.4694e-05
5 *9:4 0.00018798
6 *9:5 1.78776e-05
7 *9:6 7.15104e-05
8 *9:7 3.57552e-05
9 *9:9 4.4694e-05
10 *9:11 0.000107266
11 *9:12 8.04492e-05
12 *9:13 7.15104e-05
13 *9:15 6.25716e-05
14 *9:16 3.75959e-05
15 *14:QB 3.75959e-05

*RES
1 *9:16 *14:QB 0.509889
2 *9:15 *14:RB 0.6
3 *9:13 *9:16 0.6
4 *9:12 *9:15 1.04151
5 *9:11 *11:B 0.6
6 *9:11 *9:13 1.1903
7 *9:9 *9:12 0.297575
8 *9:7 *9:11 0.595149
9 *9:6 *10:RB 0.6
10 *9:6 *9:9 0.446362
11 *9:5 *15:D 0.6
12 *9:4 *9:7 0.6
13 *9:3 *9:6 0.743937
14 *9:2 *9:5 0.297575
15 *9:1 *9:4 2.54944
16 *9:1 *9:3 0.6
17 *9:0 *9:2 0.6
18 *9:0 *9:1 0.892305
*END

